/*--------------------------------*- C++ -*----------------------------------*\
| =========                 |                                                 |
| \\      /  F ield         | OpenFOAM: The Open Source CFD Toolbox           |
|  \\    /   O peration     | Version:  v1912                                 |
|   \\  /    A nd           | Website:  www.openfoam.com                      |
|    \\/     M anipulation  |                                                 |
\*---------------------------------------------------------------------------*/
FoamFile 
{
	version     2.0;
	format      ascii;
	class       dictionary;
	location    "system";
	object      blockMeshDict;
}
// * * * * * * * * * * * * * * * * * * * * * * * * * * * * * * * * * * * * * //

vertices
(
	( 0.707106781186548 0.707106781186547 0 )
	( -0.707106781186547 0.707106781186548 0 )
	( -0.707106781186548 -0.707106781186547 0 )
	( 0.707106781186547 -0.707106781186548 0 )
	( 6.36396103067893 6.36396103067893 0 )
	( -6.36396103067893 6.36396103067893 0 )
	( -6.36396103067893 -6.36396103067893 0 )
	( 6.36396103067893 -6.36396103067893 0 )
	( -25 -25 0 )
	( 25 -25 0 )
	( 41 -25 0 )
	( -25 25 0 )
	( 25 25 0 )
	( 41 25 0 )
	( 0.707106781186548 0.707106781186547 1 )
	( -0.707106781186547 0.707106781186548 1 )
	( -0.707106781186548 -0.707106781186547 1 )
	( 0.707106781186547 -0.707106781186548 1 )
	( 6.36396103067893 6.36396103067893 1 )
	( -6.36396103067893 6.36396103067893 1 )
	( -6.36396103067893 -6.36396103067893 1 )
	( 6.36396103067893 -6.36396103067893 1 )
	( -25 -25 1 )
	( 25 -25 1 )
	( 41 -25 1 )
	( -25 25 1 )
	( 25 25 1 )
	( 41 25 1 )
);

blocks
(
	hex (3 7 4 0 17 21 18 14 ) (94 128 1) simpleGrading (3.86540386540385 1 1)
	hex (0 4 5 1 14 18 19 15 ) (94 128 1) simpleGrading (3.86540386540385 1 1)
	hex (1 5 6 2 15 19 20 16 ) (94 128 1) simpleGrading (3.86540386540385 1 1)
	hex (2 6 7 3 16 20 21 17 ) (94 128 1) simpleGrading (3.86540386540385 1 1)
	hex (7 9 12 4 21 23 26 18 ) (63 128 1) simpleGrading (2.454185721118 1 1)
	hex (4 12 11 5 18 26 25 19 ) (63 128 1) simpleGrading (2.454185721118 1 1)
	hex (5 11 8 6 19 25 22 20 ) (63 128 1) simpleGrading (2.454185721118 1 1)
	hex (6 8 9 7 20 22 23 21 ) (63 128 1) simpleGrading (2.454185721118 1 1)
	hex (9 10 13 12 23 24 27 26 ) (41 128 1) simpleGrading (1 1 1)
);

edges
(
	arc 0 1 (6.12323399573677e-17 1 0)
	arc 4 5 (5.51091059616309e-16 9 0)
	arc 1 2 (-1 1.22464679914735e-16 0)
	arc 5 6 (-9 1.10218211923262e-15 0)
	arc 2 3 (-1.83697019872103e-16 -1 0)
	arc 6 7 (-1.65327317884893e-15 -9 0)
	arc 3 0 (1 -2.44929359829471e-16 0)
	arc 7 4 (9 -2.20436423846524e-15 0)
	arc 14 15 (6.12323399573677e-17 1 1)
	arc 18 19 (5.51091059616309e-16 9 1)
	arc 15 16 (-1 1.22464679914735e-16 1)
	arc 19 20 (-9 1.10218211923262e-15 1)
	arc 16 17 (-1.83697019872103e-16 -1 1)
	arc 20 21 (-1.65327317884893e-15 -9 1)
	arc 17 14 (1 -2.44929359829471e-16 1)
	arc 21 18 (9 -2.20436423846524e-15 1)
);

boundary
(
	inlet
	{
		type wall;
		faces
		(
			( 11 8 22 25 )
		);
	}
	outlet
	{
		type wall;
		faces
		(
			( 10 13 27 24 )
		);
	}
	walls
	{
		type wall;
		faces
		(
			( 12 11 25 26 )
			( 13 12 26 27 )
			( 8 9 23 22 )
			( 9 10 24 23 )
		);
	}
	cylinder
	{
		type wall;
		faces
		(
			( 0 3 17 14 )
			( 1 0 14 15 )
			( 2 1 15 16 )
			( 3 2 16 17 )
		);
	}
	frontAndBack
	{
		type empty;
		faces
		(
			( 0 4 7 3 )
			( 1 5 4 0 )
			( 2 6 5 1 )
			( 3 7 6 2 )
			( 4 12 9 7 )
			( 5 11 12 4 )
			( 6 8 11 5 )
			( 7 9 8 6 )
			( 12 13 10 9 )
			( 17 21 18 14 )
			( 14 18 19 15 )
			( 15 19 20 16 )
			( 16 20 21 17 )
			( 21 23 26 18 )
			( 18 26 25 19 )
			( 19 25 22 20 )
			( 20 22 23 21 )
			( 23 24 27 26 )
		);
	}
);

mergePatchPairs
(
);

// ************************************************************************* //
