/*--------------------------------*- C++ -*----------------------------------*\
| =========                 |                                                 |
| \\      /  F ield         | OpenFOAM: The Open Source CFD Toolbox           |
|  \\    /   O peration     | Version:  v1912                                 |
|   \\  /    A nd           | Website:  www.openfoam.com                      |
|    \\/     M anipulation  |                                                 |
\*---------------------------------------------------------------------------*/
FoamFile
{
	version     2.0;
	format      ascii;
	class       dictionary;
	location    "system";
	object      setExprBoundaryFieldsDict;
}
// * * * * * * * * * * * * * * * * * * * * * * * * * * * * * * * * * * * * * //

pattern
{
	field U;
	
	expressions
	(
		{
			patch   inlet;
			target  type;
			expression #{ 
//				$[(vector)(
//					(time() < 1.0 ? time() : 1.0),
//					0.02*(time() < 1.0 ? 1.0 : 0.0)
//					)]
				(pos().y() < 1e-4 ? 1 : 2)
			#}; // pos().x()
		}
	);
}


// ************************************************************************* //
