/*--------------------------------*- C++ -*----------------------------------*\
| =========                 |                                                 |
| \\      /  F ield         | OpenFOAM: The Open Source CFD Toolbox           |
|  \\    /   O peration     | Version:  v1912                                 |
|   \\  /    A nd           | Website:  www.openfoam.com                      |
|    \\/     M anipulation  |                                                 |
\*---------------------------------------------------------------------------*/
FoamFile
{
	version     2.0;
	format      ascii;
	class       volVectorField;
	location    "0";
	object      U;
}
// * * * * * * * * * * * * * * * * * * * * * * * * * * * * * * * * * * * * * //

#include "../constant/parameters"

dimensions [0 1 -1 0 0 0 0];

internalField	uniform ($u_inf 0 0);

boundaryField
{
	walls
	{
		type  slip;
	}

	inlet
	{
		type  fixedValue;
		value	uniform ($u_inf 0 0);
	}

//	outlet
//	{
//		type       inletOutlet;
//		inletValue uniform ($u_inf 0 0);
//		value      $internalField;
//	}

	outlet
	{
    type advective;
	}

	cylinder
	{
		type noSlip;
	}

  frontAndBack
  {
    type empty;
  }
}

// ************************************************************************* //
